Circuit: * G:\My Drive\2019-2020\Spring\EE 254\Final Project\LTSpice\pid_test.asc

u1:lpid: both pins shorted together -- ignoring.
Ignoring empty pin current: Ix(u1:in)

Date: Thu Jun 18 02:43:12 2020
Total elapsed time: 0.134 seconds.

tnom = 27
temp = 27
method = trap
totiter = 0
traniter = 0
tranpoints = 0
accept = 0
rejected = 0
matrix size = 5
fillins = 0
solver = Normal

